38
Lattice="8.18968932 0.0 0.0 4.09484466 7.092479000222105 0.0 0.0 0.0 22.460967054999998" Properties=species:S:1:pos:R:3:tags:I:1:forces:R:3 energy=-216634.0309974636 free_energy=-216634.0309974636 pbc="T T F"
Ru       0.00000000       1.57610644       8.00000000        4       0.00991315       0.00738421       0.56298006
Ru       2.72989644       1.57610644       8.00000000        4       0.01082203      -0.02314250       0.55594578
Ru       5.45979288       1.57610644       8.00000000        4      -0.00037770       0.02083905       0.57346296
Ru       1.36494822       3.94026611       8.00000000        4      -0.01913158      -0.01517439       0.52947113
Ru       4.09484466       3.94026611       8.00000000        4       0.00176815      -0.00532553       0.53206306
Ru       6.82474110       3.94026611       8.00000000        4       0.00452334      -0.02307565       0.54980984
Ru       2.72989644       6.30442578       8.00000000        4       0.00972854       0.01986306       0.51636519
Ru       5.45979288       6.30442578       8.00000000        4       0.00079987      -0.00224097       0.54657308
Ru       8.18968932       6.30442578       8.00000000        4      -0.00479176       0.00443258       0.53385769
Ru       0.00000000       0.00000000      10.15365568        3       0.01609588      -0.00572559      -0.54625426
Ru       2.72989644       0.00000000      10.15365568        3      -0.00620639       0.01554489      -0.57338892
Ru       5.45979288       0.00000000      10.15365568        3       0.01462058       0.00616319      -0.50918076
Ru       1.36494822       2.36415967      10.15365568        3       0.00449352      -0.04497631      -0.56574323
Ru       4.09484466       2.36415967      10.15365568        3       0.02521815      -0.05113821      -0.55246965
Ru       6.82474110       2.36415967      10.15365568        3       0.01294936      -0.05008046      -0.53415902
Ru       2.72989644       4.72831933      10.15365568        3       0.02893982      -0.00301513      -0.57006936
Ru       5.45979288       4.72831933      10.15365568        3       0.05169486      -0.00799099      -0.50372462
Ru       8.18968932       4.72831933      10.15365568        3      -0.03202720      -0.01585959      -0.49894391
Ru       0.00243670       1.56981583      12.30182865        2      -0.00726697       0.02902570      -0.02411078
Ru       2.73369352       1.57703967      12.31976161        2       0.00416467       0.01496665      -0.01595627
Ru       5.47280833       1.56962334      12.30294052        2      -0.01778304       0.02097712      -0.00930868
Ru       1.37007867       3.93682157      12.29926496        2      -0.00701346       0.01639695      -0.00778350
Ru       4.09750239       3.93816437      12.29973050        2      -0.00146090       0.01128997      -0.00256442
Ru       6.83114457       3.92500718      12.29804086        2      -0.00538852       0.01830086      -0.00352113
Ru       2.73512980       6.30037545      12.30007197        2      -0.00901609      -0.00936833      -0.02475432
Ru       5.46094813       6.29879940      12.31821387        2      -0.00210882      -0.01692763      -0.01084723
Ru       8.19534872       6.29933439      12.31396671        2      -0.00065460      -0.01059963      -0.00031625
Ru       0.00530181      -0.01255260      14.38765924        1      -0.00253999       0.01224102       0.01489029
Ru       2.73156717      -0.00099857      14.38195112        1      -0.00946346       0.02030529       0.00580375
Ru       5.46194950      -0.02701375      14.38686464        1      -0.02014125       0.01721508       0.00365714
Ru       1.38401210       2.35425494      14.38373712        1      -0.00661262       0.01429559       0.00790794
Ru       4.06946590       2.34864459      14.38591820        1      -0.00655297       0.00705254      -0.00115160
Ru       6.81267141       2.36534561      14.42659240        1      -0.00376847       0.00230371       0.02534671
Ru       2.73225914       4.72569189      14.39358775        1      -0.01179622       0.01579686       0.02012865
Ru       5.45741258       4.75737108      14.38454856        1       0.00052399       0.01202299      -0.00775830
Ru       8.20553856       4.74819168      14.38823430        1      -0.01752412       0.01916192      -0.01047159
O        6.49383893       2.86176895      16.33897394        0       0.00405823      -0.00210316      -0.00038695
H        6.88623762       2.24785089      16.97995607        0      -0.00868879      -0.01883564      -0.00539880
