38
Lattice="8.18968932 0.0 0.0 4.09484466 7.092479000222105 0.0 0.0 0.0 22.460967054999998" Properties=species:S:1:pos:R:3:tags:I:1:forces:R:3 energy=-216633.6201134585 free_energy=-216633.6201134585 pbc="T T F"
Ru       0.00000000       1.57610644       8.00000000        4      -0.00390473      -0.00353475       0.56677527
Ru       2.72989644       1.57610644       8.00000000        4      -0.00349953       0.00315757       0.54878783
Ru       5.45979288       1.57610644       8.00000000        4       0.00761098      -0.00057696       0.56878690
Ru       1.36494822       3.94026611       8.00000000        4      -0.01009441      -0.00775753       0.52087902
Ru       4.09484466       3.94026611       8.00000000        4       0.01175174      -0.00307658       0.52105874
Ru       6.82474110       3.94026611       8.00000000        4      -0.00101559      -0.00550062       0.56739927
Ru       2.72989644       6.30442578       8.00000000        4       0.00527925       0.01574184       0.51860848
Ru       5.45979288       6.30442578       8.00000000        4      -0.00888496       0.00058441       0.54703639
Ru       8.18968932       6.30442578       8.00000000        4       0.00411428      -0.00153109       0.54797125
Ru       0.00000000       0.00000000      10.15365568        3       0.01130463       0.04529332      -0.52618218
Ru       2.72989644       0.00000000      10.15365568        3      -0.00565668      -0.00072865      -0.57521157
Ru       5.45979288       0.00000000      10.15365568        3      -0.00564614       0.04435796      -0.52490588
Ru       1.36494822       2.36415967      10.15365568        3      -0.03669041      -0.03722932      -0.52468605
Ru       4.09484466       2.36415967      10.15365568        3       0.03375756      -0.03219150      -0.52445182
Ru       6.82474110       2.36415967      10.15365568        3       0.00284621      -0.00539597      -0.51289831
Ru       2.72989644       4.72831933      10.15365568        3       0.00333215       0.00522242      -0.59041373
Ru       5.45979288       4.72831933      10.15365568        3       0.04198252      -0.00791128      -0.52504086
Ru       8.18968932       4.72831933      10.15365568        3      -0.04454256      -0.01231327      -0.52355477
Ru      -0.00712635       1.57989185      12.30525915        2      -0.06284445       0.03694290       0.08219431
Ru       2.72958792       1.58000687      12.31526055        2       0.00062401       0.01456041       0.04768059
Ru       5.46728413       1.58006029      12.30525103        2       0.06331033       0.03643665       0.08281395
Ru       1.36635589       3.94106233      12.29787161        2      -0.00406491      -0.00266521      -0.00192756
Ru       4.09349279       3.94141735      12.29762479        2       0.00496840      -0.00294674      -0.00176121
Ru       6.82475878       3.93193756      12.30544739        2       0.00079241      -0.07471857       0.08238534
Ru       2.73019908       6.30300895      12.29761856        2      -0.00001954       0.00588500      -0.00199466
Ru       5.45593195       6.30252938      12.31519871        2      -0.01231096      -0.00757036       0.04769756
Ru       8.19329004       6.30240169      12.31550448        2       0.01291594      -0.00701371       0.04785209
Ru       0.01147564      -0.01511458      14.38484561        1       0.05894228      -0.10437728      -0.01104880
Ru       2.72938876       0.00010112      14.38245866        1      -0.00055793      -0.00043195      -0.03608080
Ru       5.44858496      -0.01509150      14.38448316        1      -0.06237368      -0.10570242      -0.01077806
Ru       1.38373157       2.36129532      14.38450069        1       0.12143603       0.00143339      -0.01042351
Ru       4.07582253       2.36165519      14.38406957        1      -0.12320058      -0.00094977      -0.00940895
Ru       6.82499357       2.36362466      14.47409745        1       0.00067260      -0.00027845       0.33633629
Ru       2.73025292       4.72871552      14.39208408        1       0.00021520       0.00101533       0.01883847
Ru       5.45208433       4.74629392      14.38457835        1      -0.06104802       0.10530133      -0.00984964
Ru       8.19714223       4.74602503      14.38469581        1       0.06249169       0.10643904      -0.01082640
O        6.82448075       2.36426229      16.46863537        0      -0.00426417       0.00565437      -0.41681542
H        6.82599925       2.36191728      17.43445488        0       0.00227208      -0.00362474      -0.30484105
