37
Lattice="8.18968932 0.0 0.0 4.09484466 7.092479000222105 0.0 0.0 0.0 22.460967054999998" Properties=species:S:1:pos:R:3:tags:I:1:forces:R:3 energy=-216297.35048133045 free_energy=-216297.35048133045 pbc="T T F"
Ru       0.00000000       1.57610644       8.00000000        4       0.07351350       0.05722890       0.61942400
Ru       2.72989644       1.57610644       8.00000000        4      -0.00347433      -0.00196252       0.59868600
Ru       5.45979288       1.57610644       8.00000000        4      -0.07014664       0.06223355       0.62052392
Ru       1.36494822       3.94026611       8.00000000        4      -0.01801341      -0.09779474       0.62019842
Ru       4.09484466       3.94026611       8.00000000        4       0.01877471      -0.09210771       0.62034754
Ru       6.82474110       3.94026611       8.00000000        4      -0.00236721      -0.00176609       0.49536545
Ru       2.72989644       6.30442578       8.00000000        4       0.00558289       0.00366382       0.44206005
Ru       5.45979288       6.30442578       8.00000000        4       0.08625203       0.03535318       0.61985055
Ru       8.18968932       6.30442578       8.00000000        4      -0.09339712       0.03347242       0.62068821
Ru       0.00000000       0.00000000      10.15365568        3       0.00608349       0.00314986      -0.55366161
Ru       2.72989644       0.00000000      10.15365568        3      -0.00706153       0.02030374      -0.92397323
Ru       5.45979288       0.00000000      10.15365568        3       0.00015272       0.00282667      -0.55177185
Ru       1.36494822       2.36415967      10.15365568        3       0.01440358      -0.01553718      -0.92407170
Ru       4.09484466       2.36415967      10.15365568        3      -0.01850397      -0.00999259      -0.92167775
Ru       6.82474110       2.36415967      10.15365568        3       0.00308018      -0.02866163      -0.58675428
Ru       2.72989644       4.72831933      10.15365568        3       0.00262767      -0.00201472      -0.55116276
Ru       5.45979288       4.72831933      10.15365568        3      -0.02393389       0.01699396      -0.58589193
Ru       8.18968932       4.72831933      10.15365568        3       0.02019499       0.01099584      -0.58530084
Ru       0.00432768       1.57529937      12.29672886        2      -0.01601566       0.02637798       0.05126394
Ru       2.72947856       1.57591619      12.31474146        2      -0.00001825       0.00002623       0.04105975
Ru       5.45571181       1.57550362      12.29678822        2       0.01351140       0.02739613       0.05271404
Ru       1.36754179       3.93667480      12.29695427        2      -0.03063727      -0.00123387       0.05122203
Ru       4.09224953       3.93708902      12.29677902        2       0.03049148      -0.00215073       0.05248830
Ru       6.82474212       3.94030206      12.27206675        2       0.00037281       0.00004551      -0.04089777
Ru       2.73022039       6.30453523      12.29238616        2      -0.00024528       0.00012058      -0.02581388
Ru       5.46121581       6.30851442      12.29672045        2       0.01485558      -0.02687728       0.05098446
Ru       8.18785425       6.30840732      12.29696456        2      -0.01617764      -0.02575371       0.05178973
Ru       0.00235211       0.00133225      14.38755034        1       0.02257351       0.01293445      -0.03292889
Ru       2.72944043       0.03279956      14.38328994        1       0.00167276       0.24658036      -0.04807449
Ru       5.45785283       0.00145739      14.38725556        1      -0.02384287       0.01324992      -0.03349222
Ru       1.39314770       2.34738066      14.38328459        1       0.21442409      -0.12150854      -0.04773099
Ru       4.06627939       2.34768907      14.38282194        1      -0.21870601      -0.12583724      -0.04559363
Ru       6.82498524       2.30779143      14.41921639        1       0.00124776      -0.28332451       0.35759057
Ru       2.73020362       4.72589194      14.38722845        1      -0.00036098      -0.02766790      -0.03340172
Ru       5.41108003       4.75672975      14.41919212        1      -0.24488369       0.14240132       0.35733783
Ru       8.23871380       4.75661339      14.41926985        1       0.25457547       0.14665290       0.35621837
C        6.82467632       3.94022584      15.44693460        0       0.00339488       0.00218364      -0.18761365
