38
Lattice="8.18968932 0.0 0.0 4.09484466 7.092479000222105 0.0 0.0 0.0 22.460967054999998" Properties=species:S:1:pos:R:3:tags:I:1:forces:R:3 energy=-216876.232134367 free_energy=-216876.232134367 pbc="T T F"
Ru       0.00000000       1.57610644       8.00000000        4       0.02215057      -0.02172402       0.54239529
Ru       2.72989644       1.57610644       8.00000000        4      -0.02493559      -0.01424083       0.54115191
Ru       5.45979288       1.57610644       8.00000000        4       0.00555744       0.00715152       0.54641624
Ru       1.36494822       3.94026611       8.00000000        4       0.00291640      -0.06331984       0.63196224
Ru       4.09484466       3.94026611       8.00000000        4       0.00869521       0.00156374       0.54645764
Ru       6.82474110       3.94026611       8.00000000        4      -0.00739989      -0.00412945       0.54482704
Ru       2.72989644       6.30442578       8.00000000        4       0.05972698       0.03406943       0.62864861
Ru       5.45979288       6.30442578       8.00000000        4      -0.00789740       0.02977337       0.54241046
Ru       8.18968932       6.30442578       8.00000000        4      -0.05351854       0.03383572       0.63174190
Ru       0.00000000       0.00000000      10.15365568        3      -0.09039047      -0.05238288      -0.65264394
Ru       2.72989644       0.00000000      10.15365568        3       0.08618389      -0.05808045      -0.65776661
Ru       5.45979288       0.00000000      10.15365568        3       0.00808715       0.06423284      -0.56413886
Ru       1.36494822       2.36415967      10.15365568        3      -0.00700240       0.10436545      -0.65808208
Ru       4.09484466       2.36415967      10.15365568        3       0.00394382       0.00277088      -0.45997113
Ru       6.82474110       2.36415967      10.15365568        3      -0.00100710      -0.00173267      -0.46304719
Ru       2.72989644       4.72831933      10.15365568        3       0.05963982      -0.02530223      -0.56454098
Ru       5.45979288       4.72831933      10.15365568        3      -0.00243946       0.00024425      -0.46326368
Ru       8.18968932       4.72831933      10.15365568        3      -0.05275158      -0.03064421      -0.56320709
Ru       0.00478878       1.57327994      12.28602753        2       0.01248271      -0.00814628      -0.00863299
Ru       2.72392574       1.57271407      12.28358770        2      -0.01228139      -0.00721529      -0.00877646
Ru       5.46022171       1.57905586      12.30779400        2      -0.00057284      -0.00613311       0.00202089
Ru       1.36524862       3.93240457      12.29594294        2      -0.00010387      -0.00187588      -0.01646663
Ru       4.09756597       3.93921254      12.30771446        2      -0.00551347       0.00250503       0.00207462
Ru       6.82223034       3.93883996      12.30794972        2       0.00495374       0.00287141       0.00135549
Ru       2.73697373       6.30852017      12.29576758        2       0.00044943       0.00034144      -0.01578812
Ru       5.45968891       6.31002611      12.28601903        2      -0.00066874       0.01488155      -0.00866745
Ru       8.18301202       6.30863566      12.29599987        2      -0.00171364       0.00094359      -0.01648129
Ru      -0.00722072      -0.00408882      14.38471143        1      -0.00383609      -0.00218261      -0.00086955
Ru       2.73825668      -0.00374989      14.38419240        1       0.00399318      -0.00150435      -0.00016147
Ru       5.46100103      -0.02137850      14.38214427        1      -0.00006094       0.00062324      -0.00823730
Ru       1.36580759       2.37338408      14.38417798        1       0.00068803       0.00415593       0.00005579
Ru       4.08807754       2.36031445      14.44908890        1       0.00424001       0.00237081       0.00132695
Ru       6.83370527       2.35990152      14.44771029        1      -0.00089989       0.00129121      -0.00171184
Ru       2.71193302       4.74009808      14.38207018        1       0.00039132      -0.00035687      -0.00815040
Ru       5.46052563       4.73838761      14.44752730        1       0.00076490      -0.00160720      -0.00157377
Ru       8.20928887       4.73965731      14.38223452        1      -0.00052862      -0.00036278      -0.00883560
O        5.45938788       3.15255532      17.08804033        0      -0.00078779      -0.00089603      -0.01053587
C        5.44516706       3.14377236      15.89510524        0      -0.01055489      -0.00615471      -0.00129455
