2
Lattice="20.698000449549408 0.0 0.0 0.0 20.0 0.0 0.0 0.0 20.0" Properties=species:S:1:pos:R:3:forces:R:3 energy=-32.95611993233556 free_energy=-32.95611993233556 pbc="T T F"
H       10.71351520      10.00000000       9.99999999       0.29428538       0.00000051      -0.00000051
H        9.98448525      10.00000000      10.00000001      -0.29428538      -0.00000051       0.00000051
