37
Lattice="8.18968932 0.0 0.0 4.09484466 7.092479000222105 0.0 0.0 0.0 22.460967054999998" Properties=species:S:1:pos:R:3:tags:I:1:forces:R:3 energy=-216297.39537480762 free_energy=-216297.39537480762 pbc="T T F"
Ru       0.00000000       1.57610644       8.00000000        4       0.06946092       0.06770640       0.63901401
Ru       2.72989644       1.57610644       8.00000000        4      -0.00403278      -0.00270994       0.62082088
Ru       5.45979288       1.57610644       8.00000000        4      -0.06504891       0.07210247       0.63915902
Ru       1.36494822       3.94026611       8.00000000        4      -0.02900333      -0.09939679       0.63966321
Ru       4.09484466       3.94026611       8.00000000        4       0.03005902      -0.09297752       0.63905798
Ru       6.82474110       3.94026611       8.00000000        4      -0.00172932      -0.00156529       0.49845797
Ru       2.72989644       6.30442578       8.00000000        4       0.00679671       0.00479331       0.46780451
Ru       5.45979288       6.30442578       8.00000000        4       0.09363392       0.02704646       0.63941099
Ru       8.18968932       6.30442578       8.00000000        4      -0.10011979       0.02522535       0.64000543
Ru       0.00000000       0.00000000      10.15365568        3       0.03777310       0.02180064      -0.46091858
Ru       2.72989644       0.00000000      10.15365568        3      -0.00921252      -0.00799305      -0.85195972
Ru       5.45979288       0.00000000      10.15365568        3      -0.03079719       0.02103934      -0.45950113
Ru       1.36494822       2.36415967      10.15365568        3      -0.01151160      -0.00405360      -0.85165453
Ru       4.09484466       2.36415967      10.15365568        3       0.00666301       0.00383531      -0.85379163
Ru       6.82474110       2.36415967      10.15365568        3       0.00271766       0.01019854      -0.49188160
Ru       2.72989644       4.72831933      10.15365568        3       0.00278810      -0.03718998      -0.45830917
Ru       5.45979288       4.72831933      10.15365568        3       0.01010186      -0.00266083      -0.49077911
Ru       8.18968932       4.72831933      10.15365568        3      -0.01345998      -0.00785909      -0.48962777
Ru      -0.00264731       1.57994164      12.30961267        2       0.01515922       0.00052528      -0.01149489
Ru       2.72993965       1.57610649      12.31180483        2      -0.00839285      -0.00383480      -0.02417480
Ru       5.46204711       1.58016911      12.30937037        2      -0.00450946       0.00528285      -0.00570759
Ru       1.36042975       3.93957838      12.30957054        2      -0.00013473      -0.00420375      -0.00746571
Ru       4.09948074       3.94020950      12.30937342        2       0.00192421      -0.00647455      -0.00586674
Ru       6.82470531       3.94027356      12.28485221        2       0.00069060      -0.00005965      -0.00692167
Ru       2.73010912       6.30451816      12.29488014        2      -0.00089346      -0.00080296      -0.01416061
Ru       5.46179486       6.30020234      12.30967573        2       0.00757370       0.01252924      -0.01242306
Ru       8.18681585       6.30084692      12.30960586        2      -0.00353218       0.00144522      -0.00799305
Ru       0.00376569       0.00213525      14.39179404        1       0.00567442       0.00349182       0.02264731
Ru       2.72943389       0.05141791      14.38361270        1       0.00336377      -0.00621436       0.01229450
Ru       5.45573895       0.00274433      14.39177063        1      -0.00132438       0.00147607       0.01715697
Ru       1.40926509       2.33805800      14.38367008        1      -0.00372939       0.00593745       0.01100972
Ru       4.05015361       2.33841381      14.38338782        1       0.00396875       0.00215921       0.01603211
Ru       6.82526007       2.28225650      14.46771029        1      -0.00437010      -0.01959181      -0.00881554
Ru       2.73028092       4.72340131      14.39175239        1       0.00045303      -0.00194144       0.01707572
Ru       5.38917832       4.76967672      14.46772994        1      -0.02126431       0.00701963      -0.01003167
Ru       8.26216361       4.77016523      14.46708378        1       0.00679620       0.00366254      -0.00527385
C        6.82546428       3.94078972      15.44273336        0       0.00746674       0.00225177       0.00914259
